Version 4
SHEET 1 1172 680
WIRE -192 -400 -384 -400
WIRE 112 -400 -192 -400
WIRE 544 -400 112 -400
WIRE 544 -368 544 -400
WIRE 544 -368 464 -368
WIRE 464 -352 464 -368
WIRE -160 -320 -272 -320
WIRE 240 -320 -160 -320
WIRE 368 -320 240 -320
WIRE 544 -304 544 -368
WIRE 736 -304 688 -304
WIRE 848 -304 800 -304
WIRE 944 -304 848 -304
WIRE 1040 -304 944 -304
WIRE -384 -288 -384 -400
WIRE -272 -288 -272 -320
WIRE 112 -288 112 -400
WIRE 464 -256 464 -272
WIRE 688 -240 688 -304
WIRE 944 -240 944 -304
WIRE 1040 -240 1040 -304
WIRE -384 -192 -384 -208
WIRE -272 -192 -272 -208
WIRE 112 -176 112 -208
WIRE 240 -176 240 -320
WIRE 464 -176 464 -192
WIRE 544 -176 544 -224
WIRE 544 -176 464 -176
WIRE 688 -128 688 -160
WIRE 944 -128 944 -176
WIRE 944 -128 688 -128
WIRE 1040 -128 1040 -160
WIRE 1040 -128 944 -128
WIRE -160 -112 -160 -320
WIRE -96 -112 -160 -112
WIRE 16 -112 -16 -112
WIRE 400 -112 336 -112
WIRE 544 -112 544 -176
WIRE 544 -112 480 -112
WIRE 944 -112 944 -128
WIRE 16 -16 -16 -16
WIRE 400 -16 336 -16
WIRE 544 -16 544 -112
WIRE 544 -16 480 -16
WIRE -16 0 -16 -16
WIRE 544 0 544 -16
WIRE -96 80 -128 80
WIRE 16 80 -16 80
WIRE 496 80 336 80
WIRE -192 128 -192 -400
WIRE -128 128 -128 80
WIRE -128 128 -192 128
WIRE -128 176 -128 128
WIRE -96 176 -128 176
WIRE 16 176 -16 176
WIRE 368 176 368 -320
WIRE 368 176 336 176
WIRE 16 272 -96 272
WIRE 544 272 544 96
WIRE 544 272 336 272
WIRE -96 288 -96 272
WIRE 544 288 544 272
WIRE 16 368 -16 368
WIRE 544 368 336 368
WIRE 848 368 848 -304
WIRE -96 384 -96 368
WIRE -16 384 -16 368
WIRE 544 384 544 368
WIRE 736 464 336 464
WIRE 848 464 848 448
WIRE 848 464 736 464
WIRE 736 480 736 464
WIRE 848 480 848 464
WIRE 368 560 336 560
WIRE 480 560 448 560
WIRE 480 576 480 560
WIRE 736 576 736 544
WIRE 848 576 848 560
WIRE 848 576 736 576
WIRE 848 592 848 576
WIRE 176 640 176 624
FLAG 176 640 0
FLAG 848 592 0
FLAG 544 384 0
FLAG 480 576 0
FLAG -384 -192 0
FLAG -16 384 0
FLAG -96 384 0
FLAG 944 -112 0
FLAG 1040 -304 Vout
FLAG -272 -192 0
FLAG -384 -400 Vtrans
FLAG -272 -320 Vcc
FLAG -16 0 0
SYMBOL PowerProducts\\LT3751 176 224 R0
SYMATTR InstName U1
SYMBOL voltage -384 -304 R0
WINDOW 123 0 0 Left 2
WINDOW 39 0 0 Left 2
SYMATTR InstName V1
SYMATTR Value 24
SYMBOL ind2 528 -320 R0
SYMATTR InstName L1
SYMATTR Value 10u
SYMATTR Type ind
SYMBOL ind2 704 -144 R180
WINDOW 0 36 80 Left 2
WINDOW 3 36 40 Left 2
SYMATTR InstName L2
SYMATTR Value 1000u
SYMATTR Type ind
SYMBOL schottky 736 -288 R270
WINDOW 0 32 32 VTop 2
WINDOW 3 0 32 VBottom 2
SYMATTR InstName D1
SYMATTR Value UPSC600
SYMATTR Description Diode
SYMATTR Type diode
SYMBOL cap 928 -240 R0
SYMATTR InstName C2
SYMATTR Value 20u
SYMBOL res 1024 -256 R0
SYMATTR InstName R1
SYMATTR Value 100k
SYMBOL res 832 352 R0
SYMATTR InstName R2
SYMATTR Value 1MEG
SYMBOL res 832 464 R0
SYMATTR InstName R3
SYMATTR Value 5.1k
SYMBOL cap 720 480 R0
SYMATTR InstName C3
SYMATTR Value 10n
SYMBOL nmos 496 0 R0
SYMATTR InstName M1
SYMATTR Value Si4486EY
SYMBOL res 96 -304 R0
SYMATTR InstName R4
SYMATTR Value 39k
SYMBOL res 496 -128 R90
WINDOW 0 0 56 VBottom 2
WINDOW 3 32 56 VTop 2
SYMATTR InstName R5
SYMATTR Value 18k
SYMBOL res 496 -32 R90
WINDOW 0 0 56 VBottom 2
WINDOW 3 32 56 VTop 2
SYMATTR InstName R6
SYMATTR Value 39k
SYMBOL res 528 272 R0
SYMATTR InstName R7
SYMATTR Value 10m
SYMBOL res 464 544 R90
WINDOW 0 0 56 VBottom 2
WINDOW 3 32 56 VTop 2
SYMATTR InstName R8
SYMATTR Value 1.5k
SYMBOL res 0 -128 R90
WINDOW 0 0 56 VBottom 2
WINDOW 3 32 56 VTop 2
SYMATTR InstName R9
SYMATTR Value 180k
SYMBOL res 0 64 R90
WINDOW 0 0 56 VBottom 2
WINDOW 3 32 56 VTop 2
SYMATTR InstName R11
SYMATTR Value 330k
SYMBOL res 0 160 R90
WINDOW 0 0 56 VBottom 2
WINDOW 3 32 56 VTop 2
SYMATTR InstName R12
SYMATTR Value 510k
SYMBOL voltage -96 272 M0
WINDOW 3 24 96 Invisible 2
WINDOW 123 0 0 Left 2
WINDOW 39 0 0 Left 2
SYMATTR Value PWL(0 0 +10u 2)
SYMATTR InstName V2
SYMBOL voltage -272 -304 R0
WINDOW 123 0 0 Left 2
WINDOW 39 0 0 Left 2
SYMATTR InstName V3
SYMATTR Value 12
SYMBOL res 448 -368 R0
SYMATTR InstName R13
SYMATTR Value 10
SYMBOL cap 448 -256 R0
SYMATTR InstName C1
SYMATTR Value 10n
TEXT 568 -368 Left 2 !K1 L1 L2 0.999
TEXT -320 664 Left 2 !.tran 1
