Version 4
SHEET 1 1360 680
WIRE 496 -576 480 -576
WIRE 784 -576 576 -576
WIRE 832 -576 784 -576
WIRE 944 -576 896 -576
WIRE 496 -480 480 -480
WIRE 624 -480 576 -480
WIRE 832 -480 624 -480
WIRE 944 -480 944 -576
WIRE 944 -480 896 -480
WIRE 1024 -480 944 -480
WIRE 1120 -480 1024 -480
WIRE 1216 -480 1120 -480
WIRE 1280 -480 1216 -480
WIRE 1216 -464 1216 -480
WIRE 944 -448 944 -480
WIRE 1024 -448 1024 -480
WIRE 240 -400 192 -400
WIRE 384 -400 336 -400
WIRE 240 -384 240 -400
WIRE 384 -384 384 -400
WIRE 944 -368 944 -384
WIRE 1024 -368 1024 -384
WIRE 1216 -368 1216 -384
WIRE 624 -304 624 -480
WIRE 48 -288 48 -304
WIRE 192 -288 192 -400
WIRE 336 -288 336 -400
WIRE -144 -224 -176 -224
WIRE -32 -224 -64 -224
WIRE 576 -224 416 -224
WIRE -176 -208 -176 -224
WIRE 624 -128 624 -208
WIRE 624 -128 416 -128
WIRE -32 -32 -64 -32
WIRE 624 -32 624 -48
WIRE 624 -32 416 -32
WIRE -64 -16 -64 -32
WIRE 624 -16 624 -32
WIRE 784 -16 784 -576
WIRE 736 64 416 64
WIRE -368 112 -368 96
WIRE -144 160 -176 160
WIRE -32 160 -64 160
WIRE 784 160 784 80
WIRE 784 160 416 160
WIRE -176 176 -176 160
WIRE -368 208 -368 192
WIRE -32 256 -64 256
WIRE 784 256 784 240
WIRE 784 256 416 256
WIRE 1120 256 1120 -480
WIRE -64 272 -64 256
WIRE 784 272 784 256
WIRE 1120 352 1120 336
WIRE 1120 352 416 352
WIRE 1120 368 1120 352
WIRE 560 448 416 448
WIRE 640 448 560 448
WIRE 560 464 560 448
WIRE 1120 464 1120 448
WIRE 640 512 640 448
WIRE 464 544 416 544
WIRE 560 544 560 528
WIRE 464 560 464 544
WIRE 48 624 48 608
WIRE 336 624 336 608
WIRE 464 640 464 624
WIRE 560 640 560 624
WIRE 640 640 640 576
FLAG -368 208 0
FLAG -368 96 Vin
FLAG 48 -304 Vin
FLAG 240 -320 0
FLAG 384 -320 0
FLAG 624 -16 0
FLAG 784 272 0
FLAG 464 640 0
FLAG 560 640 0
FLAG 640 640 0
FLAG 48 624 0
FLAG 336 624 0
FLAG 480 -576 Vin
FLAG 480 -480 Vin
FLAG 944 -368 0
FLAG 1024 -368 0
FLAG 1280 -480 Vout
FLAG 1216 -368 0
FLAG 1120 464 0
FLAG -176 -208 0
FLAG -176 176 0
FLAG -64 272 0
FLAG -64 -16 0
SYMBOL voltage -368 96 R0
WINDOW 3 24 96 Invisible 2
WINDOW 123 0 0 Left 2
WINDOW 39 0 0 Left 2
SYMATTR Value PWL(0 0 100u 24)
SYMATTR InstName V1
SYMBOL cap 224 -384 R0
SYMATTR InstName C1
SYMATTR Value 10u
SYMATTR SpiceLine Rser=10m
SYMBOL cap 368 -384 R0
SYMATTR InstName C2
SYMATTR Value 1n
SYMBOL nmos 576 -304 R0
SYMATTR InstName M1
SYMATTR Value NTMFS5C646NL
SYMBOL res 608 -144 R0
SYMATTR InstName R1
SYMATTR Value 5m
SYMBOL res 768 144 R0
SYMATTR InstName R2
SYMATTR Value 5m
SYMBOL cap 448 560 R0
SYMATTR InstName C3
SYMATTR Value 100n
SYMBOL res 544 528 R0
SYMATTR InstName R3
SYMATTR Value 68.1k
SYMBOL cap 544 464 R0
SYMATTR InstName C4
SYMATTR Value 10n
SYMBOL cap 624 512 R0
SYMATTR InstName C5
SYMATTR Value 100p
SYMBOL res 1104 240 R0
SYMATTR InstName R4
SYMATTR Value 475k
SYMBOL res 1104 352 R0
SYMATTR InstName R5
SYMATTR Value 12.4k
SYMBOL ind 480 -464 R270
WINDOW 0 32 56 VTop 2
WINDOW 3 5 56 VBottom 2
SYMATTR InstName L1
SYMATTR Value 8.2u
SYMATTR SpiceLine Rser=8m
SYMBOL ind 480 -560 R270
WINDOW 0 32 56 VTop 2
WINDOW 3 5 56 VBottom 2
SYMATTR InstName L2
SYMATTR Value 8.2u
SYMATTR SpiceLine Rser=8m
SYMBOL schottky 832 -560 R270
WINDOW 0 32 32 VTop 2
WINDOW 3 0 32 VBottom 2
SYMATTR InstName D2
SYMATTR Value B560C
SYMATTR Description Diode
SYMATTR Type diode
SYMBOL cap 928 -448 R0
SYMATTR InstName C6
SYMATTR Value 470u
SYMATTR SpiceLine Rser=50m
SYMBOL cap 1008 -448 R0
SYMATTR InstName C7
SYMATTR Value 10u
SYMATTR SpiceLine Rser=10m
SYMBOL res 1200 -480 R0
SYMATTR InstName R6
SYMATTR Value 100
SYMBOL voltage -48 -224 R90
WINDOW 0 -32 56 VBottom 2
WINDOW 3 32 56 VTop 2
WINDOW 123 0 0 Left 2
WINDOW 39 0 0 Left 2
SYMATTR InstName V2
SYMATTR Value PWL(0 0 1m 0 +1u 3)
SYMBOL res -48 144 R90
WINDOW 0 0 56 VBottom 2
WINDOW 3 32 56 VTop 2
SYMATTR InstName R8
SYMATTR Value 33k
SYMBOL schottky 832 -464 R270
WINDOW 0 32 32 VTop 2
WINDOW 3 0 32 VBottom 2
SYMATTR InstName D1
SYMATTR Value B560C
SYMATTR Description Diode
SYMATTR Type diode
SYMBOL PowerProducts\\LTC3862-1 192 112 R0
SYMATTR InstName U1
SYMBOL nmos 736 -16 R0
SYMATTR InstName M2
SYMATTR Value NTMFS5C646NL
TEXT -400 664 Left 2 !.tran 100m
